T42/data/state_estimation/PT_Dx_01_2050_W_Bd/PT_Dx_01_2050_W_Bd_t11.csv
bus,vm_pu,va_degree,p_mw,q_mvar
1,0.951080,-0.114144,-13.717558,-5.421537
2,0.999399,0.000126,32.643118,15.291588
3,0.950375,-0.114960,0.000018,-0.000029
4,0.950993,-0.114927,-0.000004,0.000107
5,0.950054,-0.113624,-0.000022,-0.000009
6,0.951189,-0.115941,-0.046629,-0.023914
7,0.948474,-0.115500,-0.098404,-0.050496
8,0.948094,-0.114611,-0.030004,-0.015336
9,0.949223,-0.115301,-0.630961,-0.323338
10,0.949675,-0.114785,-3.327894,-1.704892
11,0.949087,-0.115091,-0.799423,-0.409617
12,0.942476,-0.120035,-0.010523,-0.005376
13,0.949606,-0.114639,-0.071591,-0.028308
14,0.949768,-0.114938,-1.617568,-0.787773
15,0.943205,-0.119370,-0.041973,-0.021555
16,0.951397,-0.114946,-0.004462,-0.002245
17,0.949613,-0.114340,-0.031466,-0.016198
18,0.949183,-0.114792,-0.077378,-0.039599
19,0.942579,-0.119045,-0.117276,-0.060117
20,0.949679,-0.115328,-1.353870,-0.652667
21,0.942758,-0.119773,-0.010272,-0.004064
22,0.949392,-0.114285,-0.004160,-0.001671
23,0.943184,-0.119814,-0.247940,-0.127021
24,0.943518,-0.119254,-0.117365,-0.046342
25,0.944258,-0.118626,-0.011628,-0.004601
26,0.949876,-0.115043,-0.057787,-0.029610
27,0.949573,-0.115144,-0.002209,-0.001110
28,0.942904,-0.119942,-0.199225,-0.102148
29,0.950595,-0.114780,-0.067750,-0.034792
30,0.949303,-0.114896,-0.205884,-0.105454
31,0.949645,-0.114677,-0.037946,-0.019425
32,0.949953,-0.115022,-0.188703,-0.096592
33,0.949101,-0.115379,-0.640859,-0.287358
34,0.943119,-0.119453,-0.027294,-0.014020
35,0.943125,-0.118797,-0.092958,-0.047737
36,0.950029,-0.114456,-0.018450,-0.009398
37,0.949450,-0.114460,-0.003385,-0.001282
38,0.943809,-0.119294,-0.130468,-0.066796
39,0.948604,-0.114667,-0.125086,-0.064181
40,0.943232,-0.119304,-0.017299,-0.006806
41,0.943335,-0.119804,-0.022001,-0.008709
42,0.942999,-0.118993,-0.122784,-0.062876
43,0.944629,-0.119324,-0.186905,-0.095822
44,0.943214,-0.119276,-0.142231,-0.072737
45,0.943117,-0.119647,-0.001860,-0.000702
46,0.948314,-0.115187,-0.126681,-0.064887
47,0.943748,-0.118849,-0.303191,-0.155361
48,0.949453,-0.114587,-0.009144,-0.004696
49,0.948367,-0.114588,-0.034082,-0.017414
50,0.949181,-0.114887,-0.000363,-0.000164
51,0.950912,-0.114457,-0.028890,-0.011425
52,0.948782,-0.114726,-0.062026,-0.031714
53,0.943308,-0.119264,-0.517461,-0.265111
54,0.949362,-0.114061,-0.035491,-0.014025
55,0.950623,-0.115212,-0.061058,-0.031274
56,0.948622,-0.115120,-0.070386,-0.036120
57,0.949965,-0.114459,-0.058441,-0.029953
58,0.943030,-0.119820,-0.018720,-0.009646
59,0.942804,-0.119165,-0.067529,-0.026598
60,0.943069,-0.119577,-0.022915,-0.009024
61,0.949278,-0.114729,-0.999985,-0.471540
62,0.949719,-0.114947,-0.011710,-0.006042
63,0.942765,-0.119338,-0.000929,-0.000536
64,0.949185,-0.114480,-0.342310,-0.175453
65,0.950716,-0.114769,-0.586877,-0.259794
66,0.950171,-0.114207,-0.435554,-0.223156
67,0.948853,-0.114199,-0.066964,-0.034369
68,0.942848,-0.119563,-0.214806,-0.109971
69,0.948636,-0.115379,-0.026041,-0.010253
70,0.949462,-0.115223,-0.050901,-0.026092
71,0.942959,-0.120245,-0.033187,-0.016995
72,0.941979,-0.119121,-0.070488,-0.036164
73,0.943584,-0.119500,-0.013279,-0.005176
74,0.942146,-0.119064,-0.010724,-0.005502
75,0.944154,-0.118104,-0.225211,-0.115416
76,0.948939,-0.115374,-0.067160,-0.034472
77,0.949674,-0.114174,-0.036117,-0.018514
78,0.950018,-0.114761,-0.294367,-0.150759
79,0.950552,-0.114794,-0.160012,-0.081901
80,0.943698,-0.118739,-0.000097,0.000094
81,0.942511,-0.120117,-0.003328,-0.001664
82,0.949785,-0.115087,-0.015026,-0.007595
83,0.948221,-0.115187,-0.133781,-0.068513
84,0.949265,-0.115106,-0.044336,-0.022696
85,0.943141,-0.118740,-0.016600,-0.008460
86,0.950580,-0.114553,-0.103499,-0.040910
87,0.949021,-0.113670,-0.108748,-0.055772
88,0.951068,-0.113719,-0.036037,-0.018405
89,0.950044,-0.114548,-0.028577,-0.014562
90,0.948601,-0.115217,-0.080725,-0.041355
91,0.942500,-0.120652,-0.060860,-0.031258
92,0.941935,-0.120073,-0.044845,-0.023000
93,0.949360,-0.114209,-0.076427,-0.039097
94,0.943700,-0.119777,-0.122264,-0.062640
95,0.950692,-0.114194,-0.282780,-0.144897
96,0.942263,-0.118847,-0.041907,-0.016532
97,0.941805,-0.119179,-0.140795,-0.072048
98,0.942779,-0.119997,-0.069719,-0.027542
99,0.949603,-0.114744,-0.522152,-0.226655
100,0.949464,-0.114803,-0.061627,-0.031574
101,0.949516,-0.116098,-0.106472,-0.042094
102,0.949135,-0.114775,-0.403626,-0.165862
103,0.949517,-0.115448,-0.048533,-0.019218
104,0.943148,-0.120131,-0.174127,-0.068812
105,0.949555,-0.114489,-0.002402,-0.001103
106,0.949045,-0.114734,-0.000007,0.000084
107,0.948912,-0.114992,-0.000048,0.000029
108,0.947858,-0.115901,-0.000055,-0.000042
109,0.948876,-0.115133,0.000049,0.000048
110,0.943924,-0.118829,0.000079,-0.000011
111,0.942010,-0.120691,0.000010,0.000013
112,0.949300,-0.115240,0.000002,-0.000001
113,0.950087,-0.115901,0.000051,0.000018
114,0.943620,-0.119467,-0.000038,0.000015
115,0.943219,-0.118763,-0.000013,0.000094
116,0.948863,-0.114779,-0.000009,-0.000023
117,0.943980,-0.120410,0.000049,0.000060
118,0.949795,-0.114366,0.000083,-0.000018
119,0.948919,-0.115024,0.000015,0.000054
120,0.950902,-0.115175,0.000017,-0.000038
121,0.950618,-0.114320,-0.000042,-0.000011
122,0.948565,-0.114560,0.000051,0.000004
123,0.948897,-0.114643,0.000100,-0.000027
124,0.949687,-0.114248,0.000104,-0.000021
125,0.950090,-0.114186,0.000002,0.000050
126,0.942606,-0.119205,-0.000056,0.000085
127,0.949498,-0.116229,0.000048,0.000005
128,0.944174,-0.119094,-0.000091,0.000021
129,0.942381,-0.120371,0.000081,0.000045
130,0.943573,-0.120478,-0.000015,0.000056
131,0.951434,-0.113302,-0.000001,0.000043
132,0.943276,-0.119627,0.000105,0.000042
133,0.950966,-0.114553,0.000022,0.000030
134,0.951561,-0.114725,0.000095,-0.000015
135,0.943362,-0.119723,-0.000079,0.000029
136,0.943615,-0.119302,0.000053,0.000062
137,0.941866,-0.119260,-0.000069,-0.000050
138,0.942566,-0.119962,-0.000097,-0.000062
139,0.942421,-0.119726,-0.000005,0.000040
140,0.948192,-0.116127,-0.000025,-0.000058
141,0.943253,-0.119203,-0.000139,-0.000039
142,0.941932,-0.120444,-0.000015,0.000008
143,0.944138,-0.118035,-0.000131,0.000038
144,0.950228,-0.113197,-0.000052,0.000080
145,0.950665,-0.114229,-0.000004,-0.000017
146,0.950045,-0.114377,-0.000062,0.000033
147,0.949936,-0.115963,-0.000066,0.000057
148,0.950018,-0.116161,-0.000002,0.000008
149,0.942199,-0.120109,-0.000049,0.000025
150,0.943536,-0.119621,0.000032,0.000034
151,0.951036,-0.114976,-0.000014,0.000073
152,0.949353,-0.115650,-0.000016,0.000022
153,0.949285,-0.114480,0.000029,0.000008
154,0.948509,-0.114743,-0.000080,0.000010
155,0.942488,-0.119377,0.000016,0.000037
156,0.948909,-0.115199,-0.000059,0.000117
157,0.950664,-0.114536,0.000005,-0.000048
158,0.948988,-0.114821,0.000050,0.000031
159,0.942621,-0.118529,-0.000025,-0.000023
160,0.950915,-0.114065,-0.000057,0.000017
161,0.949368,-0.115341,0.000033,-0.000066
162,0.943620,-0.119273,-0.000038,0.000021
163,0.951193,-0.114509,-0.000022,-0.000051
164,0.949986,-0.115194,0.000023,0.000080
165,0.950694,-0.115744,-0.000033,-0.000064
166,0.950897,-0.113916,0.000013,0.000023
167,0.942737,-0.120154,-0.000006,0.000004
168,0.948797,-0.114614,0.000157,0.000021
169,0.949940,-0.115101,-0.000044,-0.000082
170,0.949233,-0.115174,-0.000074,0.000076
171,0.943190,-0.120419,0.000020,-0.000007
172,0.942668,-0.119727,-0.000025,-0.000036
173,0.948633,-0.114816,-0.000012,-0.000074
174,0.942967,-0.120090,-0.000015,-0.000075
175,0.943181,-0.118884,-0.000003,-0.000029
176,0.948875,-0.115019,0.000030,0.000015
177,0.942805,-0.119163,-0.000006,0.000066
178,0.942998,-0.119302,-0.000049,0.000030
179,0.950396,-0.114647,-0.000072,0.000063
180,0.949784,-0.114787,-0.000013,-0.000027
181,0.943285,-0.119602,-0.000075,0.000032
182,0.942065,-0.119156,-0.000049,0.000031
183,0.948612,-0.115313,0.000100,0.000016
184,0.949408,-0.115172,-0.000014,0.000060
185,0.948825,-0.114776,0.000033,0.000031
186,0.943180,-0.119558,-0.000042,0.000042
187,0.948698,-0.114060,0.000050,-0.000007
188,0.942872,-0.119795,-0.000034,-0.000055
189,0.950471,-0.113830,0.000037,0.000019
190,0.944704,-0.119018,0.000023,0.000047
191,0.950805,-0.114902,0.000034,0.000002
